[General]
network = physicalLayer

sim-time-limit = 100 s
physicalLayer.Tx.numberOverheadBits = 100
physicalLayer.Chan.pathLossExponent = 4.0
physicalLayer.Chan.txPowerDBm = 0.0
physicalLayer.Chan.noisePowerDBm = -120.0
physicalLayer.Chan.bitRate = 250000.0

[Config ExperimentOne]

repeat = 100
physicalLayer.Tx.NumberUserBits = ${400, 900}
physicalLayer.Chan.nodeDistance = ${ii = 10..50.0 step 1}

physicalLayer.Chan.transProbGoodGood = 0.9999
physicalLayer.Chan.transProbBadBad = 0.9999
physicalLayer.Chan.channelGainGoodDB = 0.0
physicalLayer.Chan.channelGainBadDB = 0.0

[Config ExperimentTwo]

repeat = 100
physicalLayer.Tx.NumberUserBits = ${ii = 100..900 step 100}
physicalLayer.Chan.nodeDistance = 35

physicalLayer.Chan.transProbGoodGood = 0.9999
physicalLayer.Chan.transProbBadBad = 0.9999
physicalLayer.Chan.channelGainGoodDB = 0.0
physicalLayer.Chan.channelGainBadDB = 0.0

[Config ExperimentThree]

repeat = 100
physicalLayer.Tx.NumberUserBits = ${ii = 100..900 step 100}
physicalLayer.Chan.nodeDistance = 35

physicalLayer.Chan.transProbGoodGood = 0.998
physicalLayer.Chan.transProbBadBad = 0.8802504776808445
physicalLayer.Chan.channelGainGoodDB = 3
physicalLayer.Chan.channelGainBadDB = -5
